/*--------------------------------*- C++ -*----------------------------------*\
  =========                 |
  \\      /  F ield         | OpenFOAM: The Open Source CFD Toolbox
   \\    /   O peration     | Website:  https://openfoam.org
    \\  /    A nd           | Version:  7
     \\/     M anipulation  |
\*---------------------------------------------------------------------------*/
FoamFile
{
    version     2.0;
    format      ascii;
    class       dictionary;
    location    "system";
    object      setFieldsDict;
}
// * * * * * * * * * * * * * * * * * * * * * * * * * * * * * * * * * * * * * //

/*defaultFieldValues
(
 volScalarFieldValue eps 1
volScalarFieldValue Ws 0
    
);
*/
regions
(
    boxToCell
    {
        box (0.005 0.005 0) (0.006 0.006 0.0001);
        //box (0.002 0.004 0) (0.028 0.006 0.0001);
        fieldValues
        (
           // volScalarFieldValue eps 1
            //volScalarFieldValue Ws 0.9
            //volScalarFieldValue Wf 0.27
           // volScalarFieldValue Weqbeta 0.27
             volScalarFieldValue Mb 0.9
        );
    }

    

);


// ************************************************************************* //
